%chk=2-5_Furan_Singlet_ROHF_OPT.chk
%mem=2000MB
%nproc=5
# opt freq ROHF/cc-pVDZ

geometry optimization of furan singlet using ROHF

0 1
 C                 -0.91700991   -0.05955439   -0.72092568
 C                  0.46257209   -0.05955439   -0.72092568
 C                  0.87730609    1.32781261   -0.72092568
 C                 -0.27675991    2.08391161   -0.72101468
 O                 -1.39626191    1.25112261   -0.72114768
 H                  1.12709009   -0.91825039   -0.72082068
 H                  1.90389309    1.68131061   -0.72092968

