%chk=H_boat-boat_Ge_N.chk
%mem=5000MB
%nprocshared=5
# opt freq b3lyp/6-31g(d)

boat-boat Ge N

0 1
 C                 -0.07045400   -1.62057800    1.29289800
 H                  0.01815100   -1.02044100    2.21071500
 H                 -0.15657500   -2.67115000    1.61025200
 C                 -1.34710100   -1.25113000    0.51799500
 H                 -1.53889500   -2.04538100   -0.20892600
 H                 -2.22544800   -1.16383100    1.17298300
 C                 -1.34654800    1.25153800    0.51825300
 H                 -1.53819900    2.04597500   -0.20850000
 H                 -2.22481800    1.16443300    1.17336900
 C                 -0.06965900    1.62046200    1.29302900
 H                  0.01891700    1.02013900    2.21072500
 H                 -0.15539900    2.67100600    1.61057300
 O                  1.03767200   -1.46444700    0.45245800
 O                  1.03827700    1.46413000    0.45237900
 N                 -1.14562400    0.00020300   -0.26255900
 Ge                 1.07091800   -0.00018500   -0.69270700
 H                 -0.89605542    0.00023421   -1.23091613

